*** A SPICE simulation with python
.model diode1_0 d(is=4.035984357497143e-21,n=1.0,eg=1.8)
.model diode2_0 d(is=4.898979485570384e-09,n=2.0,eg=1.8)
.model diode1_1 d(is=1.5839616109433052e-14,n=1.0,eg=1.4)
.model diode2_1 d(is=-4.835724985867483e-22,n=2.0,eg=1.4)
.model diode1_2 d(is=0.011263992517890512,n=1.0,eg=0.66)
.model diode2_2 d(is=-1.3754818577974867e-16,n=2.0,eg=0.66)
.OPTIONS TNOM=20 TEMP=20
vdep in 0 DC 0
d1_0_000_000 t_0_000_000 sn1 diode1_0
i0_000_000 sn1 t_0_000_000 0.0
RtX0_000_000to0_001_000 t_0_000_000 t_0_001_000 1.008996089374286e-09
RtY0_000_000to0_000_001 t_0_000_000 t_0_000_001 1.008996089374286e-09
RbX0_000_000to0_001_000 sn1 sn101 1.008996089374286e-09
RbY0_000_000to0_000_001 sn1 sn3 1.008996089374286e-09
Rcontact0_000_000 t_0_000_000 m_0_000_000 7.567470670307145e-12
RbusX0_000_000to0_001_000 m_0_000_000 m_0_001_000 1e-16
RbusY0_000_000to0_000_001 m_0_000_000 m_0_000_001 1e-16
Rext0_000_000 in m_0_000_000 1e-16
.PRINT DC v(t_0_000_000) v(sn1)
d1_1_000_000 sn1 sn2 diode1_1
i1_000_000 sn2 sn1 0.0
RtX1_000_000to1_001_000 sn1 sn101 1.008996089374286e-09
RtY1_000_000to1_000_001 sn1 sn3 1.008996089374286e-09
RbX1_000_000to1_001_000 sn2 sn102 1.0089960893742858e-27
RbY1_000_000to1_000_001 sn2 sn4 1.0089960893742858e-27
.PRINT DC v(sn1) v(sn2)
d1_2_000_000 sn2 0 diode1_2
i2_000_000 0 sn2 0.0
RtX2_000_000to2_001_000 sn2 sn102 1.008996089374286e-09
RtY2_000_000to2_000_001 sn2 sn4 1.008996089374286e-09
RbX2_000_000to2_001_000 0 0 1.0089960893742858e-27
RbY2_000_000to2_000_001 0 0 1.0089960893742858e-27
.PRINT DC v(sn2)
d1_0_000_001 t_0_000_001 sn3 diode1_0
i0_000_001 sn3 t_0_000_001 0.0
RtX0_000_001to0_001_001 t_0_000_001 t_0_001_001 1.008996089374286e-09
RtY0_000_001to0_000_002 t_0_000_001 t_0_000_002 1.008996089374286e-09
RbX0_000_001to0_001_001 sn3 sn103 1.008996089374286e-09
RbY0_000_001to0_000_002 sn3 sn5 1.008996089374286e-09
Rcontact0_000_001 t_0_000_001 m_0_000_001 7.567470670307145e-12
RbusX0_000_001to0_001_001 m_0_000_001 m_0_001_001 1e-16
RbusY0_000_001to0_000_002 m_0_000_001 m_0_000_002 1e-16
Rext0_000_001 in m_0_000_001 1e-16
.PRINT DC v(t_0_000_001) v(sn3)
d1_1_000_001 sn3 sn4 diode1_1
i1_000_001 sn4 sn3 0.0
RtX1_000_001to1_001_001 sn3 sn103 1.008996089374286e-09
RtY1_000_001to1_000_002 sn3 sn5 1.008996089374286e-09
RbX1_000_001to1_001_001 sn4 sn104 1.0089960893742858e-27
RbY1_000_001to1_000_002 sn4 sn6 1.0089960893742858e-27
.PRINT DC v(sn3) v(sn4)
d1_2_000_001 sn4 0 diode1_2
i2_000_001 0 sn4 0.0
RtX2_000_001to2_001_001 sn4 sn104 1.008996089374286e-09
RtY2_000_001to2_000_002 sn4 sn6 1.008996089374286e-09
RbX2_000_001to2_001_001 0 0 1.0089960893742858e-27
RbY2_000_001to2_000_002 0 0 1.0089960893742858e-27
.PRINT DC v(sn4)
d1_0_000_002 t_0_000_002 sn5 diode1_0
i0_000_002 sn5 t_0_000_002 0.0
RtX0_000_002to0_001_002 t_0_000_002 t_0_001_002 1.008996089374286e-09
RtY0_000_002to0_000_003 t_0_000_002 t_0_000_003 1.008996089374286e-09
RbX0_000_002to0_001_002 sn5 sn105 1.008996089374286e-09
RbY0_000_002to0_000_003 sn5 sn7 1.008996089374286e-09
Rcontact0_000_002 t_0_000_002 m_0_000_002 7.567470670307145e-12
RbusX0_000_002to0_001_002 m_0_000_002 m_0_001_002 1e-16
RbusY0_000_002to0_000_003 m_0_000_002 m_0_000_003 1e-16
Rext0_000_002 in m_0_000_002 1e-16
.PRINT DC v(t_0_000_002) v(sn5)
d1_1_000_002 sn5 sn6 diode1_1
i1_000_002 sn6 sn5 0.0
RtX1_000_002to1_001_002 sn5 sn105 1.008996089374286e-09
RtY1_000_002to1_000_003 sn5 sn7 1.008996089374286e-09
RbX1_000_002to1_001_002 sn6 sn106 1.0089960893742858e-27
RbY1_000_002to1_000_003 sn6 sn8 1.0089960893742858e-27
.PRINT DC v(sn5) v(sn6)
d1_2_000_002 sn6 0 diode1_2
i2_000_002 0 sn6 0.0
RtX2_000_002to2_001_002 sn6 sn106 1.008996089374286e-09
RtY2_000_002to2_000_003 sn6 sn8 1.008996089374286e-09
RbX2_000_002to2_001_002 0 0 1.0089960893742858e-27
RbY2_000_002to2_000_003 0 0 1.0089960893742858e-27
.PRINT DC v(sn6)
d1_0_000_003 t_0_000_003 sn7 diode1_0
i0_000_003 sn7 t_0_000_003 0.0
RtX0_000_003to0_001_003 t_0_000_003 t_0_001_003 1.008996089374286e-09
RtY0_000_003to0_000_004 t_0_000_003 t_0_000_004 1.008996089374286e-09
RbX0_000_003to0_001_003 sn7 sn107 1.008996089374286e-09
RbY0_000_003to0_000_004 sn7 sn9 1.008996089374286e-09
Rcontact0_000_003 t_0_000_003 m_0_000_003 7.567470670307145e-12
RbusX0_000_003to0_001_003 m_0_000_003 m_0_001_003 1e-16
RbusY0_000_003to0_000_004 m_0_000_003 m_0_000_004 1e-16
Rext0_000_003 in m_0_000_003 1e-16
.PRINT DC v(t_0_000_003) v(sn7)
d1_1_000_003 sn7 sn8 diode1_1
i1_000_003 sn8 sn7 0.0
RtX1_000_003to1_001_003 sn7 sn107 1.008996089374286e-09
RtY1_000_003to1_000_004 sn7 sn9 1.008996089374286e-09
RbX1_000_003to1_001_003 sn8 sn108 1.0089960893742858e-27
RbY1_000_003to1_000_004 sn8 sn10 1.0089960893742858e-27
.PRINT DC v(sn7) v(sn8)
d1_2_000_003 sn8 0 diode1_2
i2_000_003 0 sn8 0.0
RtX2_000_003to2_001_003 sn8 sn108 1.008996089374286e-09
RtY2_000_003to2_000_004 sn8 sn10 1.008996089374286e-09
RbX2_000_003to2_001_003 0 0 1.0089960893742858e-27
RbY2_000_003to2_000_004 0 0 1.0089960893742858e-27
.PRINT DC v(sn8)
d1_0_000_004 t_0_000_004 sn9 diode1_0
i0_000_004 sn9 t_0_000_004 9789690.48797118
RtX0_000_004to0_001_004 t_0_000_004 t_0_001_004 1.008996089374286e-09
RtY0_000_004to0_000_005 t_0_000_004 t_0_000_005 1.008996089374286e-09
RbX0_000_004to0_001_004 sn9 sn109 1.008996089374286e-09
RbY0_000_004to0_000_005 sn9 sn11 1.008996089374286e-09
Rcontact0_000_004 t_0_000_004 m_0_000_004 2.3284525139406604e-11
RbusX0_000_004to0_001_004 m_0_000_004 m_0_001_004 1e-16
RbusY0_000_004to0_000_005 m_0_000_004 m_0_000_005 1e-16
Rext0_000_004 in m_0_000_004 1e-16
.PRINT DC v(t_0_000_004) v(sn9)
d1_1_000_004 sn9 sn10 diode1_1
i1_000_004 sn10 sn9 6716119.845030254
RtX1_000_004to1_001_004 sn9 sn109 1.008996089374286e-09
RtY1_000_004to1_000_005 sn9 sn11 1.008996089374286e-09
RbX1_000_004to1_001_004 sn10 sn110 1.0089960893742858e-27
RbY1_000_004to1_000_005 sn10 sn12 1.0089960893742858e-27
.PRINT DC v(sn9) v(sn10)
d1_2_000_004 sn10 0 diode1_2
i2_000_004 0 sn10 14327707.100376887
RtX2_000_004to2_001_004 sn10 sn110 1.008996089374286e-09
RtY2_000_004to2_000_005 sn10 sn12 1.008996089374286e-09
RbX2_000_004to2_001_004 0 0 1.0089960893742858e-27
RbY2_000_004to2_000_005 0 0 1.0089960893742858e-27
.PRINT DC v(sn10)
d1_0_000_005 t_0_000_005 sn11 diode1_0
i0_000_005 sn11 t_0_000_005 19922878.887800995
RtX0_000_005to0_001_005 t_0_000_005 t_0_001_005 1.008996089374286e-09
RtY0_000_005to0_000_006 t_0_000_005 t_0_000_006 1.008996089374286e-09
RbX0_000_005to0_001_005 sn11 sn111 1.008996089374286e-09
RbY0_000_005to0_000_006 sn11 sn13 1.008996089374286e-09
Rcontact0_000_005 t_0_000_005 m_0_000_005 7.567470670307147e-11
RbusX0_000_005to0_001_005 m_0_000_005 m_0_001_005 1e-16
RbusY0_000_005to0_000_006 m_0_000_005 m_0_000_006 1e-16
Rext0_000_005 in m_0_000_005 1e-16
.PRINT DC v(t_0_000_005) v(sn11)
d1_1_000_005 sn11 sn12 diode1_1
i1_000_005 sn12 sn11 13667893.017956305
RtX1_000_005to1_001_005 sn11 sn111 1.008996089374286e-09
RtY1_000_005to1_000_006 sn11 sn13 1.008996089374286e-09
RbX1_000_005to1_001_005 sn12 sn112 1.0089960893742858e-27
RbY1_000_005to1_000_006 sn12 sn14 1.0089960893742858e-27
.PRINT DC v(sn11) v(sn12)
d1_2_000_005 sn12 0 diode1_2
i2_000_005 0 sn12 29158140.76567928
RtX2_000_005to2_001_005 sn12 sn112 1.008996089374286e-09
RtY2_000_005to2_000_006 sn12 sn14 1.008996089374286e-09
RbX2_000_005to2_001_005 0 0 1.0089960893742858e-27
RbY2_000_005to2_000_006 0 0 1.0089960893742858e-27
.PRINT DC v(sn12)
d1_0_000_006 t_0_000_006 sn13 diode1_0
i0_000_006 sn13 t_0_000_006 30914812.067277405
RtX0_000_006to0_001_006 t_0_000_006 t_0_001_006 1.008996089374286e-09
RtY0_000_006to0_000_007 t_0_000_006 t_0_000_007 1.008996089374286e-09
RbX0_000_006to0_001_006 sn13 sn113 1.008996089374286e-09
RbY0_000_006to0_000_007 sn13 sn15 1.008996089374286e-09
Rcontact0_000_006 t_0_000_006 m_0_000_006 7.567470670307147e-11
RbusX0_000_006to0_001_006 m_0_000_006 m_0_001_006 1e-16
RbusY0_000_006to0_000_007 m_0_000_006 m_0_000_007 1e-16
Rext0_000_006 in m_0_000_006 1e-16
.PRINT DC v(t_0_000_006) v(sn13)
d1_1_000_006 sn13 sn14 diode1_1
i1_000_006 sn14 sn13 21208799.510621853
RtX1_000_006to1_001_006 sn13 sn113 1.008996089374286e-09
RtY1_000_006to1_000_007 sn13 sn15 1.008996089374286e-09
RbX1_000_006to1_001_006 sn14 sn114 1.0089960893742858e-27
RbY1_000_006to1_000_007 sn14 sn16 1.0089960893742858e-27
.PRINT DC v(sn13) v(sn14)
d1_2_000_006 sn14 0 diode1_2
i2_000_006 0 sn14 45245390.84329543
RtX2_000_006to2_001_006 sn14 sn114 1.008996089374286e-09
RtY2_000_006to2_000_007 sn14 sn16 1.008996089374286e-09
RbX2_000_006to2_001_006 0 0 1.0089960893742858e-27
RbY2_000_006to2_000_007 0 0 1.0089960893742858e-27
.PRINT DC v(sn14)
d1_0_000_007 t_0_000_007 sn15 diode1_0
i0_000_007 sn15 t_0_000_007 43967732.71790565
RtX0_000_007to0_001_007 t_0_000_007 t_0_001_007 1.008996089374286e-09
RtY0_000_007to0_000_008 t_0_000_007 t_0_000_008 1.008996089374286e-09
RbX0_000_007to0_001_007 sn15 sn115 1.008996089374286e-09
RbY0_000_007to0_000_008 sn15 sn17 1.008996089374286e-09
Rcontact0_000_007 t_0_000_007 m_0_000_007 7.567470670307147e-11
RbusX0_000_007to0_001_007 m_0_000_007 m_0_001_007 1e-16
RbusY0_000_007to0_000_008 m_0_000_007 m_0_000_008 1e-16
Rext0_000_007 in m_0_000_007 1e-16
.PRINT DC v(t_0_000_007) v(sn15)
d1_1_000_007 sn15 sn16 diode1_1
i1_000_007 sn16 sn15 30163625.970662188
RtX1_000_007to1_001_007 sn15 sn115 1.008996089374286e-09
RtY1_000_007to1_000_008 sn15 sn17 1.008996089374286e-09
RbX1_000_007to1_001_007 sn16 sn116 1.0089960893742858e-27
RbY1_000_007to1_000_008 sn16 sn18 1.0089960893742858e-27
.PRINT DC v(sn15) v(sn16)
d1_2_000_007 sn16 0 diode1_2
i2_000_007 0 sn16 64349000.31046461
RtX2_000_007to2_001_007 sn16 sn116 1.008996089374286e-09
RtY2_000_007to2_000_008 sn16 sn18 1.008996089374286e-09
RbX2_000_007to2_001_007 0 0 1.0089960893742858e-27
RbY2_000_007to2_000_008 0 0 1.0089960893742858e-27
.PRINT DC v(sn16)
d1_0_000_008 t_0_000_008 sn17 diode1_0
i0_000_008 sn17 t_0_000_008 60455632.48712026
RtX0_000_008to0_001_008 t_0_000_008 t_0_001_008 1.008996089374286e-09
RtY0_000_008to0_000_009 t_0_000_008 t_0_000_009 1.008996089374286e-09
RbX0_000_008to0_001_008 sn17 sn117 1.008996089374286e-09
RbY0_000_008to0_000_009 sn17 sn19 1.008996089374286e-09
Rcontact0_000_008 t_0_000_008 m_0_000_008 7.567470670307147e-11
RbusX0_000_008to0_001_008 m_0_000_008 m_0_001_008 1e-16
RbusY0_000_008to0_000_009 m_0_000_008 m_0_000_009 1e-16
Rext0_000_008 in m_0_000_008 1e-16
.PRINT DC v(t_0_000_008) v(sn17)
d1_1_000_008 sn17 sn18 diode1_1
i1_000_008 sn18 sn17 41474985.70966051
RtX1_000_008to1_001_008 sn17 sn117 1.008996089374286e-09
RtY1_000_008to1_000_009 sn17 sn19 1.008996089374286e-09
RbX1_000_008to1_001_008 sn18 sn118 1.0089960893742858e-27
RbY1_000_008to1_000_009 sn18 sn20 1.0089960893742858e-27
.PRINT DC v(sn17) v(sn18)
d1_2_000_008 sn18 0 diode1_2
i2_000_008 0 sn18 88479875.42688885
RtX2_000_008to2_001_008 sn18 sn118 1.008996089374286e-09
RtY2_000_008to2_000_009 sn18 sn20 1.008996089374286e-09
RbX2_000_008to2_001_008 0 0 1.0089960893742858e-27
RbY2_000_008to2_000_009 0 0 1.0089960893742858e-27
.PRINT DC v(sn18)
d1_0_000_009 t_0_000_009 sn19 diode1_0
i0_000_009 sn19 t_0_000_009 76256536.4326176
RtX0_000_009to0_001_009 t_0_000_009 t_0_001_009 1.008996089374286e-09
RtY0_000_009to0_000_010 t_0_000_009 t_0_000_010 1.008996089374286e-09
RbX0_000_009to0_001_009 sn19 sn119 1.008996089374286e-09
RbY0_000_009to0_000_010 sn19 sn21 1.008996089374286e-09
Rcontact0_000_009 t_0_000_009 m_0_000_009 7.567470670307147e-11
RbusX0_000_009to0_001_009 m_0_000_009 m_0_001_009 1e-16
RbusY0_000_009to0_000_010 m_0_000_009 m_0_000_010 1e-16
Rext0_000_009 in m_0_000_009 1e-16
.PRINT DC v(t_0_000_009) v(sn19)
d1_1_000_009 sn19 sn20 diode1_1
i1_000_009 sn20 sn19 52315038.792867236
RtX1_000_009to1_001_009 sn19 sn119 1.008996089374286e-09
RtY1_000_009to1_000_010 sn19 sn21 1.008996089374286e-09
RbX1_000_009to1_001_009 sn20 sn120 1.0089960893742858e-27
RbY1_000_009to1_000_010 sn20 sn22 1.0089960893742858e-27
.PRINT DC v(sn19) v(sn20)
d1_2_000_009 sn20 0 diode1_2
i2_000_009 0 sn20 111605297.41346207
RtX2_000_009to2_001_009 sn20 sn120 1.008996089374286e-09
RtY2_000_009to2_000_010 sn20 sn22 1.008996089374286e-09
RbX2_000_009to2_001_009 0 0 1.0089960893742858e-27
RbY2_000_009to2_000_010 0 0 1.0089960893742858e-27
.PRINT DC v(sn20)
d1_0_000_010 t_0_000_010 sn21 diode1_0
i0_000_010 sn21 t_0_000_010 92968761.36876026
RtX0_000_010to0_001_010 t_0_000_010 t_0_001_010 1.008996089374286e-09
RtY0_000_010to0_000_011 t_0_000_010 t_0_000_011 1.008996089374286e-09
RbX0_000_010to0_001_010 sn21 sn121 1.008996089374286e-09
RbY0_000_010to0_000_011 sn21 sn23 1.008996089374286e-09
Rcontact0_000_010 t_0_000_010 m_0_000_010 7.567470670307147e-11
RbusX0_000_010to0_001_010 m_0_000_010 m_0_001_010 1e-16
RbusY0_000_010to0_000_011 m_0_000_010 m_0_000_011 1e-16
Rext0_000_010 in m_0_000_010 1e-16
.PRINT DC v(t_0_000_010) v(sn21)
d1_1_000_010 sn21 sn22 diode1_1
i1_000_010 sn22 sn21 63780294.58273625
RtX1_000_010to1_001_010 sn21 sn121 1.008996089374286e-09
RtY1_000_010to1_000_011 sn21 sn23 1.008996089374286e-09
RbX1_000_010to1_001_010 sn22 sn122 1.0089960893742858e-27
RbY1_000_010to1_000_011 sn22 sn24 1.0089960893742858e-27
.PRINT DC v(sn21) v(sn22)
d1_2_000_010 sn22 0 diode1_2
i2_000_010 0 sn22 136064483.75596002
RtX2_000_010to2_001_010 sn22 sn122 1.008996089374286e-09
RtY2_000_010to2_000_011 sn22 sn24 1.008996089374286e-09
RbX2_000_010to2_001_010 0 0 1.0089960893742858e-27
RbY2_000_010to2_000_011 0 0 1.0089960893742858e-27
.PRINT DC v(sn22)
d1_0_000_011 t_0_000_011 sn23 diode1_0
i0_000_011 sn23 t_0_000_011 109877270.8259651
RtX0_000_011to0_001_011 t_0_000_011 t_0_001_011 1.008996089374286e-09
RtY0_000_011to0_000_012 t_0_000_011 t_0_000_012 1.008996089374286e-09
RbX0_000_011to0_001_011 sn23 sn123 1.008996089374286e-09
RbY0_000_011to0_000_012 sn23 sn25 1.008996089374286e-09
Rcontact0_000_011 t_0_000_011 m_0_000_011 7.567470670307147e-11
RbusX0_000_011to0_001_011 m_0_000_011 m_0_001_011 1e-16
RbusY0_000_011to0_000_012 m_0_000_011 m_0_000_012 1e-16
Rext0_000_011 in m_0_000_011 1e-16
.PRINT DC v(t_0_000_011) v(sn23)
d1_1_000_011 sn23 sn24 diode1_1
i1_000_011 sn24 sn23 75380209.41711722
RtX1_000_011to1_001_011 sn23 sn123 1.008996089374286e-09
RtY1_000_011to1_000_012 sn23 sn25 1.008996089374286e-09
RbX1_000_011to1_001_011 sn24 sn124 1.0089960893742858e-27
RbY1_000_011to1_000_012 sn24 sn26 1.0089960893742858e-27
.PRINT DC v(sn23) v(sn24)
d1_2_000_011 sn24 0 diode1_2
i2_000_011 0 sn24 160810942.42127272
RtX2_000_011to2_001_011 sn24 sn124 1.008996089374286e-09
RtY2_000_011to2_000_012 sn24 sn26 1.008996089374286e-09
RbX2_000_011to2_001_011 0 0 1.0089960893742858e-27
RbY2_000_011to2_000_012 0 0 1.0089960893742858e-27
.PRINT DC v(sn24)
d1_0_000_012 t_0_000_012 sn25 diode1_0
i0_000_012 sn25 t_0_000_012 125299626.05227126
RtX0_000_012to0_001_012 t_0_000_012 t_0_001_012 1.008996089374286e-09
RtY0_000_012to0_000_013 t_0_000_012 t_0_000_013 1.008996089374286e-09
RbX0_000_012to0_001_012 sn25 sn125 1.008996089374286e-09
RbY0_000_012to0_000_013 sn25 sn27 1.008996089374286e-09
Rcontact0_000_012 t_0_000_012 m_0_000_012 7.567470670307147e-11
RbusX0_000_012to0_001_012 m_0_000_012 m_0_001_012 1e-16
RbusY0_000_012to0_000_013 m_0_000_012 m_0_000_013 1e-16
Rext0_000_012 in m_0_000_012 1e-16
.PRINT DC v(t_0_000_012) v(sn25)
d1_1_000_012 sn25 sn26 diode1_1
i1_000_012 sn26 sn25 85960562.91447957
RtX1_000_012to1_001_012 sn25 sn125 1.008996089374286e-09
RtY1_000_012to1_000_013 sn25 sn27 1.008996089374286e-09
RbX1_000_012to1_001_012 sn26 sn126 1.0089960893742858e-27
RbY1_000_012to1_000_013 sn26 sn28 1.0089960893742858e-27
.PRINT DC v(sn25) v(sn26)
d1_2_000_012 sn26 0 diode1_2
i2_000_012 0 sn26 183382339.21384636
RtX2_000_012to2_001_012 sn26 sn126 1.008996089374286e-09
RtY2_000_012to2_000_013 sn26 sn28 1.008996089374286e-09
RbX2_000_012to2_001_012 0 0 1.0089960893742858e-27
RbY2_000_012to2_000_013 0 0 1.0089960893742858e-27
.PRINT DC v(sn26)
d1_0_000_013 t_0_000_013 sn27 diode1_0
i0_000_013 sn27 t_0_000_013 133964185.62486877
RtX0_000_013to0_001_013 t_0_000_013 t_0_001_013 1.008996089374286e-09
RtY0_000_013to0_000_014 t_0_000_013 t_0_000_014 1.008996089374286e-09
RbX0_000_013to0_001_013 sn27 sn127 1.008996089374286e-09
RbY0_000_013to0_000_014 sn27 sn29 1.008996089374286e-09
Rcontact0_000_013 t_0_000_013 m_0_000_013 7.567470670307147e-11
RbusX0_000_013to0_001_013 m_0_000_013 m_0_001_013 1e-16
RbusY0_000_013to0_000_014 m_0_000_013 m_0_000_014 1e-16
Rext0_000_013 in m_0_000_013 1e-16
.PRINT DC v(t_0_000_013) v(sn27)
d1_1_000_013 sn27 sn28 diode1_1
i1_000_013 sn28 sn27 91904797.87936136
RtX1_000_013to1_001_013 sn27 sn127 1.008996089374286e-09
RtY1_000_013to1_000_014 sn27 sn29 1.008996089374286e-09
RbX1_000_013to1_001_013 sn28 sn128 1.0089960893742858e-27
RbY1_000_013to1_000_014 sn28 sn30 1.0089960893742858e-27
.PRINT DC v(sn27) v(sn28)
d1_2_000_013 sn28 0 diode1_2
i2_000_013 0 sn28 196063360.32094687
RtX2_000_013to2_001_013 sn28 sn128 1.008996089374286e-09
RtY2_000_013to2_000_014 sn28 sn30 1.008996089374286e-09
RbX2_000_013to2_001_013 0 0 1.0089960893742858e-27
RbY2_000_013to2_000_014 0 0 1.0089960893742858e-27
.PRINT DC v(sn28)
d1_0_000_014 t_0_000_014 sn29 diode1_0
i0_000_014 sn29 t_0_000_014 144269122.9806279
RtX0_000_014to0_001_014 t_0_000_014 t_0_001_014 1.008996089374286e-09
RtY0_000_014to0_000_015 t_0_000_014 t_0_000_015 1.008996089374286e-09
RbX0_000_014to0_001_014 sn29 sn129 1.008996089374286e-09
RbY0_000_014to0_000_015 sn29 sn31 1.008996089374286e-09
Rcontact0_000_014 t_0_000_014 m_0_000_014 7.567470670307147e-11
RbusX0_000_014to0_001_014 m_0_000_014 m_0_001_014 1e-16
RbusY0_000_014to0_000_015 m_0_000_014 m_0_000_015 1e-16
Rext0_000_014 in m_0_000_014 1e-16
.PRINT DC v(t_0_000_014) v(sn29)
d1_1_000_014 sn29 sn30 diode1_1
i1_000_014 sn30 sn29 98974397.71623531
RtX1_000_014to1_001_014 sn29 sn129 1.008996089374286e-09
RtY1_000_014to1_000_015 sn29 sn31 1.008996089374286e-09
RbX1_000_014to1_001_014 sn30 sn130 1.0089960893742858e-27
RbY1_000_014to1_000_015 sn30 sn32 1.0089960893742858e-27
.PRINT DC v(sn29) v(sn30)
d1_2_000_014 sn30 0 diode1_2
i2_000_014 0 sn30 211145157.268712
RtX2_000_014to2_001_014 sn30 sn130 1.008996089374286e-09
RtY2_000_014to2_000_015 sn30 sn32 1.008996089374286e-09
RbX2_000_014to2_001_014 0 0 1.0089960893742858e-27
RbY2_000_014to2_000_015 0 0 1.0089960893742858e-27
.PRINT DC v(sn30)
d1_0_000_015 t_0_000_015 sn31 diode1_0
i0_000_015 sn31 t_0_000_015 149078093.74664885
RtX0_000_015to0_001_015 t_0_000_015 t_0_001_015 1.008996089374286e-09
RtY0_000_015to0_000_016 t_0_000_015 t_0_000_016 1.008996089374286e-09
RbX0_000_015to0_001_015 sn31 sn131 1.008996089374286e-09
RbY0_000_015to0_000_016 sn31 sn33 1.008996089374286e-09
Rcontact0_000_015 t_0_000_015 m_0_000_015 7.567470670307147e-11
RbusX0_000_015to0_001_015 m_0_000_015 m_0_001_015 1e-16
RbusY0_000_015to0_000_016 m_0_000_015 m_0_000_016 1e-16
Rext0_000_015 in m_0_000_015 1e-16
.PRINT DC v(t_0_000_015) v(sn31)
d1_1_000_015 sn31 sn32 diode1_1
i1_000_015 sn32 sn31 102273544.3067765
RtX1_000_015to1_001_015 sn31 sn131 1.008996089374286e-09
RtY1_000_015to1_000_016 sn31 sn33 1.008996089374286e-09
RbX1_000_015to1_001_015 sn32 sn132 1.0089960893742858e-27
RbY1_000_015to1_000_016 sn32 sn34 1.0089960893742858e-27
.PRINT DC v(sn31) v(sn32)
d1_2_000_015 sn32 0 diode1_2
i2_000_015 0 sn32 218183329.17766908
RtX2_000_015to2_001_015 sn32 sn132 1.008996089374286e-09
RtY2_000_015to2_000_016 sn32 sn34 1.008996089374286e-09
RbX2_000_015to2_001_015 0 0 1.0089960893742858e-27
RbY2_000_015to2_000_016 0 0 1.0089960893742858e-27
.PRINT DC v(sn32)
d1_0_000_016 t_0_000_016 sn33 diode1_0
i0_000_016 sn33 t_0_000_016 153887064.51266974
RtX0_000_016to0_001_016 t_0_000_016 t_0_001_016 1.008996089374286e-09
RtY0_000_016to0_000_017 t_0_000_016 t_0_000_017 1.008996089374286e-09
RbX0_000_016to0_001_016 sn33 sn133 1.008996089374286e-09
RbY0_000_016to0_000_017 sn33 sn35 1.008996089374286e-09
Rcontact0_000_016 t_0_000_016 m_0_000_016 7.567470670307147e-11
RbusX0_000_016to0_001_016 m_0_000_016 m_0_001_016 1e-16
RbusY0_000_016to0_000_017 m_0_000_016 m_0_000_017 1e-16
Rext0_000_016 in m_0_000_016 1e-16
.PRINT DC v(t_0_000_016) v(sn33)
d1_1_000_016 sn33 sn34 diode1_1
i1_000_016 sn34 sn33 105572690.89731766
RtX1_000_016to1_001_016 sn33 sn133 1.008996089374286e-09
RtY1_000_016to1_000_017 sn33 sn35 1.008996089374286e-09
RbX1_000_016to1_001_016 sn34 sn134 1.0089960893742858e-27
RbY1_000_016to1_000_017 sn34 sn36 1.0089960893742858e-27
.PRINT DC v(sn33) v(sn34)
d1_2_000_016 sn34 0 diode1_2
i2_000_016 0 sn34 225221501.08662614
RtX2_000_016to2_001_016 sn34 sn134 1.008996089374286e-09
RtY2_000_016to2_000_017 sn34 sn36 1.008996089374286e-09
RbX2_000_016to2_001_016 0 0 1.0089960893742858e-27
RbY2_000_016to2_000_017 0 0 1.0089960893742858e-27
.PRINT DC v(sn34)
d1_0_000_017 t_0_000_017 sn35 diode1_0
i0_000_017 sn35 t_0_000_017 158009039.4549734
RtX0_000_017to0_001_017 t_0_000_017 t_0_001_017 1.008996089374286e-09
RtY0_000_017to0_000_018 t_0_000_017 t_0_000_018 1.008996089374286e-09
RbX0_000_017to0_001_017 sn35 sn135 1.008996089374286e-09
RbY0_000_017to0_000_018 sn35 sn37 1.008996089374286e-09
Rcontact0_000_017 t_0_000_017 m_0_000_017 7.567470670307147e-11
RbusX0_000_017to0_001_017 m_0_000_017 m_0_001_017 1e-16
RbusY0_000_017to0_000_018 m_0_000_017 m_0_000_018 1e-16
Rext0_000_017 in m_0_000_017 1e-16
.PRINT DC v(t_0_000_017) v(sn35)
d1_1_000_017 sn35 sn36 diode1_1
i1_000_017 sn36 sn35 108400530.83206724
RtX1_000_017to1_001_017 sn35 sn135 1.008996089374286e-09
RtY1_000_017to1_000_018 sn35 sn37 1.008996089374286e-09
RbX1_000_017to1_001_017 sn36 sn136 1.0089960893742858e-27
RbY1_000_017to1_000_018 sn36 sn38 1.0089960893742858e-27
.PRINT DC v(sn35) v(sn36)
d1_2_000_017 sn36 0 diode1_2
i2_000_017 0 sn36 231254219.8657322
RtX2_000_017to2_001_017 sn36 sn136 1.008996089374286e-09
RtY2_000_017to2_000_018 sn36 sn38 1.008996089374286e-09
RbX2_000_017to2_001_017 0 0 1.0089960893742858e-27
RbY2_000_017to2_000_018 0 0 1.0089960893742858e-27
.PRINT DC v(sn36)
d1_0_000_018 t_0_000_018 sn37 diode1_0
i0_000_018 sn37 t_0_000_018 158009039.4549734
RtX0_000_018to0_001_018 t_0_000_018 t_0_001_018 1.008996089374286e-09
RtY0_000_018to0_000_019 t_0_000_018 t_0_000_019 1.008996089374286e-09
RbX0_000_018to0_001_018 sn37 sn137 1.008996089374286e-09
RbY0_000_018to0_000_019 sn37 sn39 1.008996089374286e-09
Rcontact0_000_018 t_0_000_018 m_0_000_018 7.567470670307147e-11
RbusX0_000_018to0_001_018 m_0_000_018 m_0_001_018 1e-16
RbusY0_000_018to0_000_019 m_0_000_018 m_0_000_019 1e-16
Rext0_000_018 in m_0_000_018 1e-16
.PRINT DC v(t_0_000_018) v(sn37)
d1_1_000_018 sn37 sn38 diode1_1
i1_000_018 sn38 sn37 108400530.83206724
RtX1_000_018to1_001_018 sn37 sn137 1.008996089374286e-09
RtY1_000_018to1_000_019 sn37 sn39 1.008996089374286e-09
RbX1_000_018to1_001_018 sn38 sn138 1.0089960893742858e-27
RbY1_000_018to1_000_019 sn38 sn40 1.0089960893742858e-27
.PRINT DC v(sn37) v(sn38)
d1_2_000_018 sn38 0 diode1_2
i2_000_018 0 sn38 231254219.8657322
RtX2_000_018to2_001_018 sn38 sn138 1.008996089374286e-09
RtY2_000_018to2_000_019 sn38 sn40 1.008996089374286e-09
RbX2_000_018to2_001_018 0 0 1.0089960893742858e-27
RbY2_000_018to2_000_019 0 0 1.0089960893742858e-27
.PRINT DC v(sn38)
d1_0_000_019 t_0_000_019 sn39 diode1_0
i0_000_019 sn39 t_0_000_019 162818010.22099435
RtX0_000_019to0_001_019 t_0_000_019 t_0_001_019 1.008996089374286e-09
RtY0_000_019to0_000_020 t_0_000_019 t_0_000_020 1.008996089374286e-09
RbX0_000_019to0_001_019 sn39 sn139 1.008996089374286e-09
RbY0_000_019to0_000_020 sn39 sn41 1.008996089374286e-09
Rcontact0_000_019 t_0_000_019 m_0_000_019 7.567470670307147e-11
RbusX0_000_019to0_001_019 m_0_000_019 m_0_001_019 1e-16
RbusY0_000_019to0_000_020 m_0_000_019 m_0_000_020 1e-16
Rext0_000_019 in m_0_000_019 1e-16
.PRINT DC v(t_0_000_019) v(sn39)
d1_1_000_019 sn39 sn40 diode1_1
i1_000_019 sn40 sn39 111699677.42260842
RtX1_000_019to1_001_019 sn39 sn139 1.008996089374286e-09
RtY1_000_019to1_000_020 sn39 sn41 1.008996089374286e-09
RbX1_000_019to1_001_019 sn40 sn140 1.0089960893742858e-27
RbY1_000_019to1_000_020 sn40 sn42 1.0089960893742858e-27
.PRINT DC v(sn39) v(sn40)
d1_2_000_019 sn40 0 diode1_2
i2_000_019 0 sn40 238292391.7746893
RtX2_000_019to2_001_019 sn40 sn140 1.008996089374286e-09
RtY2_000_019to2_000_020 sn40 sn42 1.008996089374286e-09
RbX2_000_019to2_001_019 0 0 1.0089960893742858e-27
RbY2_000_019to2_000_020 0 0 1.0089960893742858e-27
.PRINT DC v(sn40)
d1_0_000_020 t_0_000_020 sn41 diode1_0
i0_000_020 sn41 t_0_000_020 166939985.163298
RtX0_000_020to0_001_020 t_0_000_020 t_0_001_020 1.008996089374286e-09
RtY0_000_020to0_000_021 t_0_000_020 t_0_000_021 1.008996089374286e-09
RbX0_000_020to0_001_020 sn41 sn141 1.008996089374286e-09
RbY0_000_020to0_000_021 sn41 sn43 1.008996089374286e-09
Rcontact0_000_020 t_0_000_020 m_0_000_020 7.567470670307147e-11
RbusX0_000_020to0_001_020 m_0_000_020 m_0_001_020 1e-16
RbusY0_000_020to0_000_021 m_0_000_020 m_0_000_021 1e-16
Rext0_000_020 in m_0_000_020 1e-16
.PRINT DC v(t_0_000_020) v(sn41)
d1_1_000_020 sn41 sn42 diode1_1
i1_000_020 sn42 sn41 114527517.35735801
RtX1_000_020to1_001_020 sn41 sn141 1.008996089374286e-09
RtY1_000_020to1_000_021 sn41 sn43 1.008996089374286e-09
RbX1_000_020to1_001_020 sn42 sn142 1.0089960893742858e-27
RbY1_000_020to1_000_021 sn42 sn44 1.0089960893742858e-27
.PRINT DC v(sn41) v(sn42)
d1_2_000_020 sn42 0 diode1_2
i2_000_020 0 sn42 244325110.55379534
RtX2_000_020to2_001_020 sn42 sn142 1.008996089374286e-09
RtY2_000_020to2_000_021 sn42 sn44 1.008996089374286e-09
RbX2_000_020to2_001_020 0 0 1.0089960893742858e-27
RbY2_000_020to2_000_021 0 0 1.0089960893742858e-27
.PRINT DC v(sn42)
d1_0_000_021 t_0_000_021 sn43 diode1_0
i0_000_021 sn43 t_0_000_021 168313976.81073254
RtX0_000_021to0_001_021 t_0_000_021 t_0_001_021 1.008996089374286e-09
RtY0_000_021to0_000_022 t_0_000_021 t_0_000_022 1.008996089374286e-09
RbX0_000_021to0_001_021 sn43 sn143 1.008996089374286e-09
RbY0_000_021to0_000_022 sn43 sn45 1.008996089374286e-09
Rcontact0_000_021 t_0_000_021 m_0_000_021 7.567470670307147e-11
RbusX0_000_021to0_001_021 m_0_000_021 m_0_001_021 1e-16
RbusY0_000_021to0_000_022 m_0_000_021 m_0_000_022 1e-16
Rext0_000_021 in m_0_000_021 1e-16
.PRINT DC v(t_0_000_021) v(sn43)
d1_1_000_021 sn43 sn44 diode1_1
i1_000_021 sn44 sn43 115470130.66894118
RtX1_000_021to1_001_021 sn43 sn143 1.008996089374286e-09
RtY1_000_021to1_000_022 sn43 sn45 1.008996089374286e-09
RbX1_000_021to1_001_021 sn44 sn144 1.0089960893742858e-27
RbY1_000_021to1_000_022 sn44 sn46 1.0089960893742858e-27
.PRINT DC v(sn43) v(sn44)
d1_2_000_021 sn44 0 diode1_2
i2_000_021 0 sn44 246336016.81349733
RtX2_000_021to2_001_021 sn44 sn144 1.008996089374286e-09
RtY2_000_021to2_000_022 sn44 sn46 1.008996089374286e-09
RbX2_000_021to2_001_021 0 0 1.0089960893742858e-27
RbY2_000_021to2_000_022 0 0 1.0089960893742858e-27
.PRINT DC v(sn44)
d1_0_000_022 t_0_000_022 sn45 diode1_0
i0_000_022 sn45 t_0_000_022 171748955.92931893
RtX0_000_022to0_001_022 t_0_000_022 t_0_001_022 1.008996089374286e-09
RtY0_000_022to0_000_023 t_0_000_022 t_0_000_023 1.008996089374286e-09
RbX0_000_022to0_001_022 sn45 sn145 1.008996089374286e-09
RbY0_000_022to0_000_023 sn45 sn47 1.008996089374286e-09
Rcontact0_000_022 t_0_000_022 m_0_000_022 7.567470670307147e-11
RbusX0_000_022to0_001_022 m_0_000_022 m_0_001_022 1e-16
RbusY0_000_022to0_000_023 m_0_000_022 m_0_000_023 1e-16
Rext0_000_022 in m_0_000_022 1e-16
.PRINT DC v(t_0_000_022) v(sn45)
d1_1_000_022 sn45 sn46 diode1_1
i1_000_022 sn46 sn45 117826663.94789918
RtX1_000_022to1_001_022 sn45 sn145 1.008996089374286e-09
RtY1_000_022to1_000_023 sn45 sn47 1.008996089374286e-09
RbX1_000_022to1_001_022 sn46 sn146 1.0089960893742858e-27
RbY1_000_022to1_000_023 sn46 sn48 1.0089960893742858e-27
.PRINT DC v(sn45) v(sn46)
d1_2_000_022 sn46 0 diode1_2
i2_000_022 0 sn46 251363282.4627524
RtX2_000_022to2_001_022 sn46 sn146 1.008996089374286e-09
RtY2_000_022to2_000_023 sn46 sn48 1.008996089374286e-09
RbX2_000_022to2_001_022 0 0 1.0089960893742858e-27
RbY2_000_022to2_000_023 0 0 1.0089960893742858e-27
.PRINT DC v(sn46)
d1_0_000_023 t_0_000_023 sn47 diode1_0
i0_000_023 sn47 t_0_000_023 170795573.96987456
RtX0_000_023to0_001_023 t_0_000_023 t_0_001_023 1.008996089374286e-09
RtY0_000_023to0_000_024 t_0_000_023 t_0_000_024 1.008996089374286e-09
RbX0_000_023to0_001_023 sn47 sn147 1.008996089374286e-09
RbY0_000_023to0_000_024 sn47 sn49 1.008996089374286e-09
Rcontact0_000_023 t_0_000_023 m_0_000_023 7.567470670307147e-11
RbusX0_000_023to0_001_023 m_0_000_023 m_0_001_023 1e-16
RbusY0_000_023to0_000_024 m_0_000_023 m_0_000_024 1e-16
Rext0_000_023 in m_0_000_023 1e-16
.PRINT DC v(t_0_000_023) v(sn47)
d1_1_000_023 sn47 sn48 diode1_1
i1_000_023 sn48 sn47 117172605.73169862
RtX1_000_023to1_001_023 sn47 sn147 1.008996089374286e-09
RtY1_000_023to1_000_024 sn47 sn49 1.008996089374286e-09
RbX1_000_023to1_001_023 sn48 sn148 1.0089960893742858e-27
RbY1_000_023to1_000_024 sn48 sn50 1.0089960893742858e-27
.PRINT DC v(sn47) v(sn48)
d1_2_000_023 sn48 0 diode1_2
i2_000_023 0 sn48 249967959.7519388
RtX2_000_023to2_001_023 sn48 sn148 1.008996089374286e-09
RtY2_000_023to2_000_024 sn48 sn50 1.008996089374286e-09
RbX2_000_023to2_001_023 0 0 1.0089960893742858e-27
RbY2_000_023to2_000_024 0 0 1.0089960893742858e-27
.PRINT DC v(sn48)
d1_0_000_024 t_0_000_024 sn49 diode1_0
i0_000_024 sn49 t_0_000_024 167500798.08061826
RtX0_000_024to0_001_024 t_0_000_024 t_0_001_024 1.008996089374286e-09
RtY0_000_024to0_000_025 t_0_000_024 t_0_000_025 1.008996089374286e-09
RbX0_000_024to0_001_024 sn49 sn149 1.008996089374286e-09
RbY0_000_024to0_000_025 sn49 sn51 1.008996089374286e-09
Rcontact0_000_024 t_0_000_024 m_0_000_024 7.567470670307147e-11
RbusX0_000_024to0_001_024 m_0_000_024 m_0_001_024 1e-16
RbusY0_000_024to0_000_025 m_0_000_024 m_0_000_025 1e-16
Rext0_000_024 in m_0_000_024 1e-16
.PRINT DC v(t_0_000_024) v(sn49)
d1_1_000_024 sn49 sn50 diode1_1
i1_000_024 sn50 sn49 114912257.48453484
RtX1_000_024to1_001_024 sn49 sn149 1.008996089374286e-09
RtY1_000_024to1_000_025 sn49 sn51 1.008996089374286e-09
RbX1_000_024to1_001_024 sn50 sn150 1.0089960893742858e-27
RbY1_000_024to1_000_025 sn50 sn52 1.0089960893742858e-27